Transient_forced_an

.TRAN 1ms 20ms

.inc values4.inc
Vdumb CFP1 7 0


.END

.op

.end

.control

*makes plots in color
set hcopypscolor=0
set color0=white
set color1=black
set color2=red
set color3=blue
set color4=violet
set color5=rgb:3/8/0
set color6=rgb:4/0/0

echo "********************************************"
echo "Transient analysis"
echo "********************************************"
tran 1e-5 20e-3


hardcopy trans4.ps v(6)
echo trans4_FIG

.endc