asdasd

.TRAN 1ms 20ms

.inc values.inc
Vdumb CFP1 7 0

.model P2model NPN(Bf=200, CJE=12pF, CJC=2pF)
.ic v(6)=8.683696 v(8)=0
.END

.op

.end

.control

*makes plots in color
set hcopypscolor=0
set color0=white
set color1=black
set color2=red
set color3=blue
set color4=violet
set color5=rgb:3/8/0
set color6=rgb:4/0/0

echo "********************************************"
echo "Transient analysis"
echo "********************************************"
tran 1e-5 20e-3

hardcopy trans3.ps v(6)
echo trans3_FIG

.endc